<?xml version="1.0" encoding="UTF-8"?>

<!-- generated on 2023-08-07 14:49:39.103365 by randomTrips.py UNKNOWN
<configuration>
    <net-file value="dataset/data.net.xml"/>
    <route-file value="dataset/data.rou.xml"/>
    <end value="100.0"/>
    <period value="0.1"/>
</configuration>
-->

<!-- generated on 2023-08-07 14:49:38 by Eclipse SUMO duarouter Version 1.18.0
<configuration xmlns:xsi="http://www.w3.org/2001/XMLSchema-instance" xsi:noNamespaceSchemaLocation="http://sumo.dlr.de/xsd/duarouterConfiguration.xsd">

    <input>
        <net-file value="dataset/data.net.xml"/>
        <route-files value="trips.trips.xml"/>
    </input>

    <output>
        <output-file value="dataset/data.rou.xml"/>
        <alternatives-output value="NUL"/>
    </output>

    <time>
        <begin value="0"/>
        <end value="100.0"/>
    </time>

    <report>
        <no-warnings value="true"/>
        <ignore-errors value="true"/>
        <no-step-log value="true"/>
    </report>

</configuration>
-->

<routes xmlns:xsi="http://www.w3.org/2001/XMLSchema-instance" xsi:noNamespaceSchemaLocation="http://sumo.dlr.de/xsd/routes_file.xsd">
    <vehicle id="0" depart="0.00">
        <route edges="109377140#0 -695023502 109377158#2 109377158#3 -109377154 -109377276 225637426#2 225637426#3 225637426#4 -109377211 109377105 -109377106 -109377133 109377167 -109098837#2 -109098837#1"/>
    </vehicle>
    <vehicle id="1" depart="0.10">
        <route edges="-109721648#8 -109721769 109098827 109098837#1 109098837#2 -109377167 109377133 109377219#1 -109377212"/>
    </vehicle>
    <vehicle id="2" depart="0.20">
        <route edges="109377276 -109377169#1 -109377169#0 109377269 -225637426#3 -1096463957 109377169#1"/>
    </vehicle>
    <vehicle id="3" depart="0.30">
        <route edges="226083202 226083201#1 109098798#2 109098798#4 -109377109#11 -109377109#10 -109377109#9 -109377109#8 -109377109#7 -109377109#6 -109377109#5 -109377109#4 -109377109#3 -109377109#2 -109377109#1 -109377109#0 109231262#1 109231262#3 109231262#4 109231262#5 109231195 -109231238#1"/>
    </vehicle>
    <vehicle id="4" depart="0.40">
        <route edges="-665500255 371706427 -109231142#0 -1121376325 -109377219#4 -109377163#2 -109101170#8 -109101170#7 -109101170#6 -109101170#5 -109101170#3 -109101170#2 -109101170#1 -109101170#0"/>
    </vehicle>
    <vehicle id="5" depart="0.50">
        <route edges="-109377186 -109377212 -109377109#4 -109377109#3 -109377109#2 -109377109#1 -109377109#0 109231262#1 109231262#3 109231262#4 109231130#0 109231130#1 109231130#2"/>
    </vehicle>
    <vehicle id="6" depart="0.60">
        <route edges="-109098840#0 109721867 1115742523#4 -109377163#6 -109377163#5 -109377163#4 -109377163#3"/>
    </vehicle>
    <vehicle id="7" depart="0.70">
        <route edges="109377149 109377261 -109377167 109377133 109377106 -109377105 109377211 -225637426#4 -225637426#3 -225637426#2 -225637426#1 -225637426#0 -225875405#8 -225875405#7 -225875405#6 -225875405#5 109231299#0 109231299#1 109231299#2 109231254#0 109231254#1 109231254#2"/>
    </vehicle>
    <vehicle id="8" depart="0.80">
        <route edges="-109377193 -109377144 -109377186 -109377212 109377109#5 109377109#6 109377109#7 109377109#8 109377109#9 109377109#10 109377109#11 109377109#12"/>
    </vehicle>
    <vehicle id="10" depart="1.00">
        <route edges="109721881#1 -109721869 109721648#6 109721648#7 109721648#8 1176926872#0 1176926872#1 1176926872#2 1176926872#3 109377233#0 109377219#0 109377219#1 109377219#2 109377219#3 109377219#4 109377219#5"/>
    </vehicle>
    <vehicle id="11" depart="1.10">
        <route edges="-225637426#10 109377139 -109377262 -109377132#1"/>
    </vehicle>
    <vehicle id="12" depart="1.20">
        <route edges="592044345#1 109721881#1 -109721869 109721648#6 109721648#7 109721648#8 1176926872#0 1176926872#1 1176926872#2 1176926872#3 109377233#0 109377233#1 -109101170#5 -109101170#3 -109101170#2 -109101170#1 -109377141 -225637426#11"/>
    </vehicle>
    <vehicle id="13" depart="1.30">
        <route edges="-109231255 109231124#0 109231124#1 109231101 109231302 -109231195 -109231262#5 -109231262#4 -109231262#3"/>
    </vehicle>
    <vehicle id="14" depart="1.40">
        <route edges="225652604#0 225652604#1 225652606 -109377233#4 -109377233#3 -109377233#2 -109377233#1 -109377233#0 109377109#7 109377109#8"/>
    </vehicle>
    <vehicle id="15" depart="1.50">
        <route edges="109721898 -109721654#0 109721790#0 109721790#1 -109098834 -109098791#0 -109377149 109377109#5 109377109#6 109377109#7 109377109#8 109377109#9 109377109#10 109377109#11 109377109#12 109377109#13 109377109#14 109388694#0 109388694#1 109388694#2"/>
    </vehicle>
    <vehicle id="16" depart="1.60">
        <route edges="109231197#1 371702526#0 679123319"/>
    </vehicle>
    <vehicle id="17" depart="1.70">
        <route edges="-225877311#1 -225877311#0 109719432#7 1115742523#1 1115742523#3 1115742523#4 -109377163#6 -109377163#5 -109377109#0 109231262#1 109231262#3 109231262#4 109231262#5"/>
    </vehicle>
    <vehicle id="18" depart="1.80">
        <route edges="225637426#11 109377141 109101170#1 109101170#2 109101170#3 109101170#5 -109377233#1 109377132#0"/>
    </vehicle>
    <vehicle id="19" depart="1.90">
        <route edges="225875405#6 109231113 -109231188 109231255 -109231231#0 109231302 -109231195 109231309#0"/>
    </vehicle>
    <vehicle id="20" depart="2.00">
        <route edges="109377219#3 109377163#3 109377163#4 -109377109#0 109231262#1 109231262#3 109231262#4 -109231117"/>
    </vehicle>
    <vehicle id="21" depart="2.10">
        <route edges="-109377219#2 -109377212 109377149 109098791#0 109098834 -109721790#1 -109721790#0 109721654#0 1121165758 -109721717#0"/>
    </vehicle>
    <vehicle id="22" depart="2.20">
        <route edges="-109231225#2 -109231225#1 -1124583120 -109231262#1 -109231262#0 109377109#1 109377109#2 109377109#3 109377109#4 109377109#5 109377133 109377106 -109377105 -109377119#1 -109377119#0 -109377233#2"/>
    </vehicle>
    <vehicle id="23" depart="2.30">
        <route edges="-109231278 -109231171#3 -109231171#2 -109231171#1 -109231171#0 225875405#9 225637426#1 225637426#2 225637426#3 225637426#4 -109377211 109377105 -109377106 -109377133 109377167 -109098837#2 -109098837#1 -109098827 -109721713#3 -109721713#2 -109721713#0 109721862 109721898 -109721654#0"/>
    </vehicle>
    <vehicle id="24" depart="2.40">
        <route edges="109377136#1 -109388694#1 -109388694#0 -109377153#6 -109377153#5 -109377153#4 -225637426#12 -225637426#11 -225637426#10 -225637426#9 -225637426#8 -225637426#7 -225637426#6 -225637426#5 -225637426#4 -225637426#3 -225637426#2 -225637426#1 -225637426#0 -225875405#8 -225875405#7 -225875405#6"/>
    </vehicle>
    <vehicle id="25" depart="2.50">
        <route edges="-225875405#7 109231113 -109231290#1 -109231290#0 109231286#2 225875405#9 225637426#1 109377276 -109377169#1 -109377169#0"/>
    </vehicle>
    <vehicle id="26" depart="2.60">
        <route edges="-1096463957 -109377169#0 -109377249#1 458946957#1 458946957#2 458946957#3 458946957#4 458946957#5"/>
    </vehicle>
    <vehicle id="27" depart="2.70">
        <route edges="109377147 109377256 -109098798#9 -109098798#8 -109098798#7 -109101170#1 109377117"/>
    </vehicle>
    <vehicle id="28" depart="2.80">
        <route edges="-109377140#1 -109377140#0 109377249#0 458946957#1 458946957#2 458946957#3 458946957#4 458946957#5 109377159 109377213 109377153#3 109377153#4 109377153#5 109377153#6 109388694#0 109388694#1"/>
    </vehicle>
    <vehicle id="29" depart="2.90">
        <route edges="-109377132#4 -109377190 109377109#13 109377109#14 109388694#0 109388694#1 109388694#2 109388694#3 109388694#5 109388701#0 109388701#1 -34169993#1"/>
    </vehicle>
    <vehicle id="30" depart="3.00">
        <route edges="883032637#14 109095088 109231223 -109231262#0 -109377163#4 -109377163#3 -109377163#2 -109101170#8 109377144"/>
    </vehicle>
    <vehicle id="31" depart="3.10">
        <route edges="109231254#2 -109231278 -109231171#3 -109231171#2 -109231171#1 -109231171#0 225875405#9 225637426#1 225637426#2 225637426#3 225637426#4 225637426#5 225637426#6 225637426#7 225637426#8 225637426#9 225637426#10 -109098798#7 -109098798#6 -109098798#5 109377109#12 109377190"/>
    </vehicle>
    <vehicle id="32" depart="3.20">
        <route edges="225637426#9 109377139 109101170#3 109101170#5 109101170#6 109101170#7 -109377186 -109377212 109377149 109098791#0 109098834 -109721790#1 -109721790#0 109721654#0 109721775#0 109721775#1"/>
    </vehicle>
    <vehicle id="33" depart="3.30">
        <route edges="-109377219#3 -109377219#2 -109377219#1 -109377219#0 109377233#1 -109101170#5 -109101170#3 -109101170#2"/>
    </vehicle>
    <vehicle id="34" depart="3.40">
        <route edges="-109721867 -109721744 109721752 1115742523#3 1115742523#4 -109377163#6 -109377163#5 -109377163#4 -109377163#3 -109377163#2 -109377163#1 -109377163#0 225637426#2 -1096463957"/>
    </vehicle>
    <vehicle id="35" depart="3.50">
        <route edges="-109377169#0 109377269 -109377193 -109377144 109101170#8 109101170#9 109101170#10 -109231231#2 -109231231#1 -109231231#0 109231142#4 109231142#6 592036399#0"/>
    </vehicle>
    <vehicle id="36" depart="3.60">
        <route edges="225877307#1 225877304 225877314 109377129#0 109377129#1 109377129#2 109098791#0 109098834 -109721790#1 -109721790#0 109721654#0 -109721898"/>
    </vehicle>
    <vehicle id="37" depart="3.70">
        <route edges="109377153#5 -109377132#4 -109377132#3 -109377132#2 -109377132#1 -109377132#0 109377233#1 109101170#6 109101170#7 109101170#8 109101170#9 109101170#10 109231286#0 109231286#1 109231290#0 -371702525#0"/>
    </vehicle>
    <vehicle id="38" depart="3.80">
        <route edges="34169993#2 -34169993#5 -34169993#1 109098798#0 109098798#2 109098798#4"/>
    </vehicle>
    <vehicle id="39" depart="3.90">
        <route edges="-109391495#0 -34169993#1 109098798#0 109098798#2 109098798#4 -109377109#11 -109377109#10 -109377109#9 -109377109#8 -109377109#7 -109377109#6 109377167 -109377261"/>
    </vehicle>
    <vehicle id="40" depart="4.00">
        <route edges="109231262#4 109231130#0 109231130#1 109231130#2 -109231142#2 -109231142#0 -1121376325 -109377219#4 -109377219#3 -109377219#2 -109377219#1 -109377219#0 109377132#0 109377132#1 109377132#2 109377132#3 109377132#4 109377153#6 109388694#0 109388694#1 109388694#2 109388694#3 109388694#5 109388694#6 -109388694#8 -109388694#5"/>
    </vehicle>
    <vehicle id="41" depart="4.10">
        <route edges="109231305#1 665500255 -109231262#1 -109231262#0 109377163#5 109377163#6 25339355#1 25339355#2"/>
    </vehicle>
    <vehicle id="42" depart="4.20">
        <route edges="-371702521#1 -371702521#0 225875405#6 225875405#7 225875405#8 225875405#9 225637426#1 225637426#2 225637426#3 -109377193"/>
    </vehicle>
    <vehicle id="43" depart="4.30">
        <route edges="883032637#8 883032637#9 883032637#10 883032637#11 883032637#13 -109377163#6 -109377163#5 -109377163#4 -109377163#3 109377219#4 109377219#5 109231142#0 109231142#2 109231142#3 109231142#4"/>
    </vehicle>
    <vehicle id="44" depart="4.40">
        <route edges="-109231254#2 -109231254#1 -109231254#0 -109231299#2 -109231299#1 -109231299#0 109231221#0 109231221#1 -109231124#1 -109231124#0"/>
    </vehicle>
    <vehicle id="45" depart="4.50">
        <route edges="-109231290#2 -109231188 109231255 109231231#1 109231231#2 1124583127 -109101170#9 -109101170#8 -109377186 -109377212 109377109#5 109377133"/>
    </vehicle>
    <vehicle id="46" depart="4.60">
        <route edges="109721800 109721790#0 109721790#1 -109098834 -109098791#0 -109377149 -109377109#4 -109377109#3 -109377109#2 -109377109#1 -109377109#0 109231262#1 109231262#3 109231262#4 109231262#5 109231309#0 -665500257#1 -665500257#0"/>
    </vehicle>
    <vehicle id="47" depart="4.70">
        <route edges="-109231171#1 -109231171#0 225875405#9 225637426#1 225637426#2 225637426#3 225637426#4 225637426#5 225637426#6 225637426#7 225637426#8 225637426#9 225637426#10 -109098798#7 -109098798#6 -109098798#5 -109098798#4 -109098798#2 -109098798#0 34169993#1 34169993#2 -34169993#5"/>
    </vehicle>
    <vehicle id="48" depart="4.80">
        <route edges="883032637#6 109098837#1 109098837#2 -109377167 109377133 109377219#1 109377219#2 109377219#3 109377219#4 109377219#5 109231142#0 109231142#2 109231142#3 109231142#4 -665500256#2 -665500256#1 -109231290#4 109231221#1"/>
    </vehicle>
    <vehicle id="49" depart="4.90">
        <route edges="678755591 -678755590#0 -109377140#2 -109377140#1 -109377140#0 -109377154 -109377276 -225637426#1 -225637426#0 225875405#9"/>
    </vehicle>
    <vehicle id="50" depart="5.00">
        <route edges="-109098798#0 883032637#3 883032637#4 883032637#5 1176926872#0 1176926872#1 1176926872#2 1176926872#3 109377233#0 109377233#1 109377233#2 109377233#3 109377233#4 109377233#5 -458946957#2 -458946957#1 -109377249#0 109377140#0 109377140#1 109377140#2 109377140#3 109377140#4 109377263"/>
    </vehicle>
    <vehicle id="51" depart="5.10">
        <route edges="109377164#1 -109377233#4 -109377233#3 -109377233#2 -109377233#1 109377219#0 109377219#1 109377219#2 109377219#3 109377219#4 109377219#5 109231142#0 109231142#2 109231142#3 109231231#0"/>
    </vehicle>
    <vehicle id="52" depart="5.20">
        <route edges="-1096463957 -109377169#0 -109377177 225652607 109377164#0 109377164#1 109377238 109377147"/>
    </vehicle>
    <vehicle id="53" depart="5.30">
        <route edges="-109231290#3 -371702521#0 225875405#6 225875405#7 225875405#8 225875405#9 225637426#1 225637426#2 225637426#3 225637426#4 -109377211 -109377119#1 -679123849"/>
    </vehicle>
    <vehicle id="54" depart="5.40">
        <route edges="1076113989 109721841#1 109721752 1115742523#3 1115742523#4 -109377163#6 -109377163#5 -109377163#4 -109377163#3 109377219#4 109377219#5 109231142#0 109231142#2 109231142#3 -109231101 -109231221#1 109231290#4 665500256#1"/>
    </vehicle>
    <vehicle id="55" depart="5.50">
        <route edges="225877307#1 225877304 225877314 109377129#0 109377129#1 109377129#2 -109377149 109377109#5 109377109#6 109377109#7 109377109#8 109377109#9 109377109#10 109377109#11 109377109#12 109377109#13 109377109#14 109388694#0 109388694#1 109388694#2 109388694#3 109388694#5 109388694#6 -109388694#8"/>
    </vehicle>
    <vehicle id="56" depart="5.60">
        <route edges="109101170#5 109377233#2 109377233#3 225637426#8 225637426#9 225637426#10 225637426#11 225637426#12 -109377153#3"/>
    </vehicle>
    <vehicle id="57" depart="5.70">
        <route edges="25339355#9 25339355#10 109098788 109721662 -109721869 -109721791 109721696#0 109721696#1 109721790#0 109721790#1 225877308"/>
    </vehicle>
    <vehicle id="58" depart="5.80">
        <route edges="-109721790#1 371702519 109721713#3 109098827 109098837#1 109098837#2 -109377167 109377133 109377106 -109377105 109377211 225637426#5 225637426#6 225637426#7 225637426#8 225637426#9 225637426#10 225637426#11 109377141"/>
    </vehicle>
    <vehicle id="59" depart="5.90">
        <route edges="109377109#8 -226346744 226346742 1176926872#3 109377233#0 109377233#1 109101170#6 -109377105 -109377119#1"/>
    </vehicle>
    <vehicle id="60" depart="6.00">
        <route edges="109721655#0 592044345#1 109721881#1 -109721869 109721648#6 109721648#7 109721648#8 1176926872#0 1176926872#1 1176926872#2 1176926872#3 109377233#0 109377219#0 109377219#1 109377219#2 109377219#3 109377219#4 109377219#5 109231142#0 -695006666 109231231#2"/>
    </vehicle>
    <vehicle id="61" depart="6.10">
        <route edges="109721752 1115742523#3 1115742523#4 883032637#14 109095088 109231223"/>
    </vehicle>
    <vehicle id="62" depart="6.20">
        <route edges="-102679078 -109249719#0 109101170#0 109101170#1 109101170#2 109101170#3 109101170#5 109101170#6 109101170#7 109101170#8 109377163#2 109377163#3 109377163#4 -109377109#0 -109231223 109231225#0 -1124583120"/>
    </vehicle>
    <vehicle id="63" depart="6.30">
        <route edges="-109098798#8 -225637426#10 -225637426#9 -225637426#8 -225637426#7 -225637426#6 -225637426#5 -225637426#4 -225637426#3 -225637426#2 -225637426#1 -225637426#0 -225875405#8 -225875405#7 -225875405#6 -225875405#5 109231299#0 109231299#1 -679123319 371702526#1"/>
    </vehicle>
    <vehicle id="64" depart="6.40">
        <route edges="225877309 225877307#1 225877304 225877314 109377129#0 109377129#1 109377129#2 -109377149 109377212 109377186 109377144 109377193 225637426#4"/>
    </vehicle>
    <vehicle id="65" depart="6.50">
        <route edges="-109721831 109721863#0 109721863#1 1115742523#1 1115742523#3 1115742523#4 -109377163#6 -109377163#5 -109377109#0 109231262#1 109231262#3 109231262#4 109231262#5 109231309#0 -665500257#1 -665500257#0 -109231142#4"/>
    </vehicle>
    <vehicle id="66" depart="6.60">
        <route edges="225877309 225877307#1 225877304 225877314 109377129#0 109377129#1 109377129#2 -109377149 109377109#5 109377109#6 109377109#7 109377109#8 109377109#9 109377109#10 109377109#11 -109098798#4 -109098798#2 -109098798#0 34169993#1 109391495#0 592044341"/>
    </vehicle>
    <vehicle id="67" depart="6.70">
        <route edges="-109231238#1 -665500257#0 -109231142#4 -109231142#3 -109231142#2 -109231142#0 -1121376325 -109377219#4 -109377219#3 -109377219#2 -109377219#1 -109377219#0 109377132#0 109377132#1 109377132#2 109098798#6 109101170#2"/>
    </vehicle>
    <vehicle id="68" depart="6.80">
        <route edges="-109231195 -109231262#5 -109231262#4 -109231262#3 -109231262#1 -109231262#0 109377109#1 109377109#2 109377109#3 109377109#4 109377149 109098791#0 109098834 -109721790#1 -109721790#0 -109721800 109721706#0 109721706#1"/>
    </vehicle>
    <vehicle id="69" depart="6.90">
        <route edges="109721662 -109721869 109721648#6 109721648#7 109721648#8 1176926872#0 1176926872#1 1176926872#2 1176926872#3 -109377109#6 -109377109#5 -109377109#4 -109377109#3 -109377109#2 -109377109#1 -109377109#0"/>
    </vehicle>
    <vehicle id="70" depart="7.00">
        <route edges="109098798#8 109098798#9 225652604#0 225652604#1 225652606 -109377233#4 -109377233#3 -109377233#2 -109377233#1 -109377233#0 -109377109#6 -109377109#5 -109377109#4 -109377109#3 -109377109#2 -109377109#1 -109377109#0 109231262#1 109231262#3"/>
    </vehicle>
    <vehicle id="71" depart="7.10">
        <route edges="-109391495#0 -34169993#1 109098798#0 109098798#2 109098798#4 -109377109#11 -109377109#10 -109377109#9 -109377109#8 -109377109#7 -109377109#6 -109377109#5 109377149 109098791#0 109098834 -109721790#1 225877305 225877310"/>
    </vehicle>
    <vehicle id="72" depart="7.20">
        <route edges="-665500256#0 225875405#4 225875405#5 225875405#6 225875405#7 225875405#8 225875405#9 225637426#1 109377276 -109377169#1 -109377169#0 -109377177"/>
    </vehicle>
    <vehicle id="73" depart="7.30">
        <route edges="109231221#1 109231101 -109231142#3 -109231142#2 -109231142#0 -1121376325 -109377219#4 -109377219#3 -109377219#2 -109377219#1 -109377219#0 109377132#0 109377132#1 109377132#2 109377132#3 109377132#4 109377153#6 109388694#0 109388694#1 109388694#2"/>
    </vehicle>
    <vehicle id="74" depart="7.40">
        <route edges="-109377163#3 109377219#4 109377219#5 -1121376325 -109377219#4 109377163#3 109377163#4 109377163#5 109377163#6 -1115742523#4 -109721867"/>
    </vehicle>
    <vehicle id="75" depart="7.50">
        <route edges="883032637#6 109098837#1 109098837#2 -109377167 109377133 109377106 -109377105 109377211 -225637426#4 -225637426#3 -225637426#2 109377276 109377154"/>
    </vehicle>
    <vehicle id="76" depart="7.60">
        <route edges="-678755590#0 -109377140#2 -109377140#1 -109377140#0 -109377154 -109377276 -225637426#1 -225637426#0 109231171#0 109231171#1"/>
    </vehicle>
    <vehicle id="77" depart="7.70">
        <route edges="-109231305#0 109231130#2 -109231142#2 -109231142#0 -1121376325 -109377219#4 -109377219#3 -109377219#2 -109377219#1 -109377219#0"/>
    </vehicle>
    <vehicle id="78" depart="7.80">
        <route edges="-225637426#0 225875405#9 225637426#1 225637426#2 225637426#3 225637426#4 225637426#5 225637426#6 225637426#7 -109377233#3 -109377233#2 -109377233#1 -109377233#0 109377109#7 109377109#8 109377109#9 109377109#10 109377109#11"/>
    </vehicle>
    <vehicle id="79" depart="7.90">
        <route edges="-109377219#3 -109377219#2 -109377219#1 -109377219#0 109377132#0 109377275 -109377198"/>
    </vehicle>
    <vehicle id="80" depart="8.00">
        <route edges="-109231197#0 225875405#3 225875405#4 225875405#5 225875405#6 225875405#7 225875405#8 225875405#9 225637426#1 225637426#2 225637426#3 225637426#4 225637426#5 225637426#6 225637426#7 225637426#8 225637426#9 109377139"/>
    </vehicle>
    <vehicle id="81" depart="8.10">
        <route edges="-109377219#3 -109377219#2 -109377219#1 -109377219#0 -109377233#0 -1176926872#3 -1176926872#2 -1176926872#1 -1176926872#0 25339355#8 25339355#9"/>
    </vehicle>
    <vehicle id="82" depart="8.20">
        <route edges="225875405#4 109231299#0 109231299#1 109231299#2 -109231197#1"/>
    </vehicle>
    <vehicle id="83" depart="8.30">
        <route edges="-109377233#5 -109377233#4 -109377233#3 -109377233#2 109101170#6 109101170#7 109101170#8 109377163#2 109377163#3 109377163#4 109377163#5 109377163#6"/>
    </vehicle>
    <vehicle id="84" depart="8.40">
        <route edges="-109377180#0 -109377109#12 -109377109#11"/>
    </vehicle>
    <vehicle id="85" depart="8.50">
        <route edges="458946957#1 -109377271 -225652607 109377177 109377169#0 109377169#1 109377245#0 109377245#1 109377138 -225637426#0 -225875405#8 -225875405#7 -225875405#6 -225875405#5 109231299#0 109231299#1"/>
    </vehicle>
    <vehicle id="86" depart="8.60">
        <route edges="109098798#6 109101170#2 109101170#3 109101170#5 109101170#6 109101170#7 109101170#8 109377163#2 109377163#3 109377163#4 109377163#5 109377163#6 -1115742523#4 -1115742523#3 -1115742523#2 -109721863#1 -109721863#0 109721824#0"/>
    </vehicle>
    <vehicle id="87" depart="8.70">
        <route edges="109721898 -109721654#0 109721790#0 109721790#1 -109098834 -109098791#0 -109377149 109377212 -109377219#1 -109377219#0 109377132#0 109377132#1 -109377160"/>
    </vehicle>
    <vehicle id="88" depart="8.80">
        <route edges="-109231262#4 -109231262#3 -109231262#1 -109231262#0 -109377163#4 -109377163#3 -109377163#2 -109377163#1 -109377163#0 109377276 109377245#0 109377245#1 -109377263 -109377140#4 -109377140#3 678755590#0 -678755591"/>
    </vehicle>
    <vehicle id="89" depart="8.90">
        <route edges="-665500256#0 225875405#4 225875405#5 225875405#6 225875405#7 225875405#8 225875405#9 225637426#1 109377163#0 109377163#1 109377163#2 109377163#3 109377163#4 109377109#1 109377116 225877314 109098812#0"/>
    </vehicle>
    <vehicle id="90" depart="9.00">
        <route edges="109377262 109101170#3 109101170#5 109101170#6 -109377106 -109377133 109377167"/>
    </vehicle>
    <vehicle id="91" depart="9.10">
        <route edges="883032637#1 -109388694#3 -109388694#2 -109388694#1 -109388694#0 -109377153#6 -109377132#4 -109377132#3 -109377132#2 -109377132#1 -109377132#0 109377219#0 109377219#1 109377219#2 109377219#3 109377219#4 109377219#5 109231142#0 109231142#2 -109231130#2 -109231130#1 -109231130#0 -109231262#4"/>
    </vehicle>
    <vehicle id="92" depart="9.20">
        <route edges="-371702525#1 -371702525#0 225875405#8 225875405#9 225637426#1 225637426#2 225637426#3 225637426#4 225637426#5 225637426#6 225637426#7 109377233#4 109377238 109377147 109377256 109377159 109377213 458947282#0 -678104602 -225637426#13"/>
    </vehicle>
    <vehicle id="93" depart="9.30">
        <route edges="225875405#6 225875405#7 225875405#8 225875405#9 225637426#1 225637426#2 225637426#3 225637426#4 225637426#5 225637426#6 225637426#7 225637426#8 225637426#9 109377139 -109377262"/>
    </vehicle>
    <vehicle id="95" depart="9.50">
        <route edges="-665500255 371706427 -109231142#0 -1121376325 -109377219#4 -109377219#3 -109377219#2 -109377219#1 -109377219#0 -109377233#0 -1176926872#3 -1176926872#2 -1176926872#1 -1176926872#0 -109721648#8 -109721648#7 -109721648#6 109721869 -109721662"/>
    </vehicle>
    <vehicle id="96" depart="9.60">
        <route edges="-109377262 -109377132#1 -109377132#0 109377219#0 109377219#1 -109377212 109377149 109098791#0 109098834 -109721790#1 -109721790#0 109721654#0 1121165758 371702524"/>
    </vehicle>
    <vehicle id="97" depart="9.70">
        <route edges="-679123319 371702526#1 -109231171#0 225875405#9 225637426#1 225637426#2 225637426#3 -109377193 -109377144 -109377186 -109377212 109377149 109098791#0 109098834 -109721790#1 -109721790#0 -109721800 109721706#0 225877300"/>
    </vehicle>
    <vehicle id="98" depart="9.80">
        <route edges="109231238#0 109231238#1 109231238#2 -109231130#1"/>
    </vehicle>
    <vehicle id="99" depart="9.90">
        <route edges="883032637#9 883032637#10 225877307#0 225877307#1 225877304 225877314 109377129#0 109377129#1 109377129#2 -109377149 109377212 109377186 109377144 109377193 225637426#4 225637426#5 225637426#6 225637426#7 225637426#8"/>
    </vehicle>
    <vehicle id="100" depart="10.00">
        <route edges="678124582 -109377167 109377133 109377106 -109377105 109377211 -225637426#4 -225637426#3 -225637426#2 -225637426#1 -225637426#0 -225875405#8 371702525#0 371702525#1"/>
    </vehicle>
    <vehicle id="101" depart="10.10">
        <route edges="225652604#1 225652606 109377233#5 -458946957#2 -458946957#1 -109377249#0 -109377158#3 -109377158#2 695023502 -109377140#0"/>
    </vehicle>
    <vehicle id="102" depart="10.20">
        <route edges="109098827 109098837#1 109098837#2 -109377167 109377109#6 109377109#7 109377109#8 109377109#9 109377109#10 109377109#11 -109098798#4 -109377180#1"/>
    </vehicle>
    <vehicle id="103" depart="10.30">
        <route edges="-371702524 -1121165758 -109721654#0 109721790#0 109721790#1 -109098834 -109098791#0 -109377149 109377212 109377219#2 109377219#3 109377219#4 109377219#5 109231142#0 109231142#2 109231142#3 109231142#4 -665500256#2 -592036399#0 -109231142#6"/>
    </vehicle>
    <vehicle id="104" depart="10.40">
        <route edges="-226346742 226346744 -109377109#8 -109377109#7 -109377109#6 -109377109#5 109377149 109098791#0 883032637#8 883032637#9 883032637#10"/>
    </vehicle>
    <vehicle id="105" depart="10.50">
        <route edges="-109391495#0 -34169993#1 109098798#0 109098798#2 109098798#4 -109377109#11 -109377109#10 -109377109#9 -109377109#8 -109377109#7 -109377109#6 -109377109#5 -109377109#4 -109377109#3 -109377109#2 -109377109#1 109377163#5 109377163#6 -1115742523#4 -1115742523#3 -1115742523#2 -109721863#1 -109721863#0 109721824#0"/>
    </vehicle>
    <vehicle id="106" depart="10.60">
        <route edges="1076126847 371702516#2 109721863#1 1115742523#1 1115742523#3 1115742523#4 -109377163#6 -109377163#5 -109377109#0 109231262#1 109231262#3 109231262#4 109231262#5 109231309#0 -665500257#1"/>
    </vehicle>
    <vehicle id="107" depart="10.70">
        <route edges="665500255 -109231262#1 -109231262#0 109377109#1 109377109#2 109377109#3 109377109#4 109377109#5 109377109#6 -1176926872#3 -1176926872#2 -1176926872#1 -1176926872#0 883032637#6"/>
    </vehicle>
    <vehicle id="108" depart="10.80">
        <route edges="109231254#1 109231254#2 -109231278 -109231171#3 -109231171#2 -109231171#1 -109231171#0 225875405#9 225637426#1 225637426#2 225637426#3 -109377193 -109377144 -109377186 -109377212 109377149 109377261"/>
    </vehicle>
    <vehicle id="109" depart="10.90">
        <route edges="-109377119#0 -109377233#2 -109377233#1 -109377233#0 -109377109#6 -109377109#5 109377149 109098791#0 109098834 -109721790#1 -109721790#0"/>
    </vehicle>
    <vehicle id="110" depart="11.00">
        <route edges="678124582 -109377167 109377133 109377106 -109101170#6 -109101170#5 -109101170#3 -109101170#2 -109101170#1 -109101170#0 109249719#0"/>
    </vehicle>
    <vehicle id="111" depart="11.10">
        <route edges="109231225#1 109231225#2 109231225#3 109231117 -109231262#4 -109231262#3 -109231262#1 -109231262#0 109377109#1 109377109#2 109377109#3 109377109#4 109377109#5 109377167 -109098837#2 -109098837#1 -109098827 -109721713#3 -109721713#2 -1087542701 109721648#7"/>
    </vehicle>
    <vehicle id="112" depart="11.20">
        <route edges="-109231142#6 -109231142#4 -109231142#3 -109231142#2 -109231142#0 -1121376325 -109377219#4 -109377219#3 -109377219#2 -109377219#1 -109377219#0 -109377233#0 -1176926872#3 -226346742 -226346743 109377108"/>
    </vehicle>
    <vehicle id="113" depart="11.30">
        <route edges="109101170#7 109377144 109377193 -225637426#3 -225637426#2 -225637426#1 -225637426#0 -225875405#8 -225875405#7 -225875405#6 -225875405#5 109231299#0 371702473 -109231197#0 225875405#3"/>
    </vehicle>
    <vehicle id="114" depart="11.40">
        <route edges="-109377132#0 109377233#1 109377233#2 109377233#3 225637426#8 225637426#9 225637426#10 225637426#11 225637426#12 225637426#13 678104602"/>
    </vehicle>
    <vehicle id="115" depart="11.50">
        <route edges="-109231225#2 -109231225#1 -1124583120 -109231262#1 -109231262#0 -109377163#4 -109377163#3 -109377163#2 -109377163#1 -109377163#0 109377276 109377154 -109377158#3 -109377158#2 -109377158#1 -109377158#0"/>
    </vehicle>
    <vehicle id="116" depart="11.60">
        <route edges="109377109#11 109098798#5 109098798#6 109098798#7 -225637426#10 -225637426#9 -225637426#8 -225637426#7 -225637426#6 -225637426#5 -225637426#4 -109377269 109377169#0"/>
    </vehicle>
    <vehicle id="117" depart="11.70">
        <route edges="-109377233#2 -109377233#1 109377219#0 109377219#1 109377219#2 109377219#3 109377219#4 109377219#5 109231142#0 -371706427 -109231305#1 -109231305#0"/>
    </vehicle>
    <vehicle id="118" depart="11.80">
        <route edges="226083201#0 226083201#1 109098798#2 109098798#4 109098798#5 109098798#6 109098798#7 109098798#8 109098798#9 225652604#0 225652604#1 -109377259"/>
    </vehicle>