<?xml version="1.0" encoding="UTF-8"?>

<!-- generated on 2023-08-07 09:43:10 by Eclipse SUMO netedit Version 1.18.0
<configuration xmlns:xsi="http://www.w3.org/2001/XMLSchema-instance" xsi:noNamespaceSchemaLocation="http://sumo.dlr.de/xsd/neteditConfiguration.xsd">

    <input>
        <sumo-net-file value="/Users/shikanai/Desktop/TrafficSignalOptimization/aomori_mini2/dataset/data.net.xml"/>
    </input>

    <output>
        <output-file value="/Users/shikanai/Desktop/TrafficSignalOptimization/aomori_mini2/dataset/data.net.xml"/>
        <output.street-names value="true"/>
    </output>

    <processing>
        <geometry.min-radius.fix.railways value="false"/>
        <geometry.max-grade.fix value="false"/>
        <offset.disable-normalization value="true"/>
        <lefthand value="1"/>
    </processing>

    <junctions>
        <no-turnarounds value="true"/>
        <junctions.corner-detail value="5"/>
        <junctions.limit-turn-speed value="5.50"/>
        <rectangular-lane-cut value="0"/>
    </junctions>

    <pedestrian>
        <walkingareas value="0"/>
    </pedestrian>

</configuration>
-->

<net version="1.16" junctionCornerDetail="5" lefthand="true" limitTurnSpeed="5.50" xmlns:xsi="http://www.w3.org/2001/XMLSchema-instance" xsi:noNamespaceSchemaLocation="http://sumo.dlr.de/xsd/net_file.xsd">

    <location netOffset="-478000.09,-4519184.90" convBoundary="0.00,-1668.09,3170.94,1212.22" origBoundary="140.739087,40.823417,140.759879,40.829981" projParameter="+proj=utm +zone=54 +ellps=WGS84 +datum=WGS84 +units=m +no_defs"/>

    <type id="highway.footway" priority="1" numLanes="1" speed="2.78" allow="pedestrian" oneway="1" width="2.00"/>
    <type id="highway.primary" priority="12" numLanes="2" speed="27.78" disallow="tram rail_urban rail rail_electric rail_fast ship" oneway="0"/>
    <type id="highway.residential" priority="3" numLanes="1" speed="13.89" disallow="tram rail_urban rail rail_electric rail_fast ship" oneway="0"/>
    <type id="highway.service" priority="1" numLanes="1" speed="5.56" allow="pedestrian delivery bicycle" oneway="0"/>
    <type id="highway.tertiary" priority="10" numLanes="1" speed="22.22" disallow="tram rail_urban rail rail_electric rail_fast ship" oneway="0"/>
    <type id="highway.trunk" priority="13" numLanes="2" speed="27.78" disallow="pedestrian bicycle tram rail_urban rail rail_electric rail_fast ship" oneway="0"/>
    <type id="highway.unclassified" priority="4" numLanes="1" speed="13.89" disallow="tram rail_urban rail rail_electric rail_fast ship" oneway="0"/>

    <edge id=":10041021732_0" function="internal">
        <lane id=":10041021732_0_0" index="0" disallow="tram rail_urban rail rail_electric rail_fast ship" speed="6.60" length="9.16" shape="1597.88,643.30 1596.87,645.62 1595.37,647.09 1593.40,647.70 1590.95,647.45"/>
    </edge>
    <edge id=":10041021732_1" function="internal">
        <lane id=":10041021732_1_0" index="0" disallow="tram rail_urban rail rail_electric rail_fast ship" speed="7.96" length="14.29" shape="1597.88,643.30 1597.37,647.19 1598.24,650.29 1600.49,652.58 1604.13,654.07"/>
    </edge>
    <edge id=":10041021732_2" function="internal">
        <lane id=":10041021732_2_0" index="0" disallow="tram rail_urban rail rail_electric rail_fast ship" speed="6.45" length="9.03" shape="1604.91,650.97 1602.61,650.03 1601.19,648.58 1600.64,646.62 1600.96,644.16"/>
    </edge>
    <edge id=":10041021732_3" function="internal">
        <lane id=":10041021732_3_0" index="0" disallow="tram rail_urban rail rail_electric rail_fast ship" speed="22.22" length="14.40" shape="1604.91,650.97 1590.95,647.45"/>
    </edge>
    <edge id=":10041021732_4" function="internal">
        <lane id=":10041021732_4_0" index="0" disallow="tram rail_urban rail rail_electric rail_fast ship" speed="22.22" length="14.40" shape="1590.16,650.55 1604.13,654.07"/>
    </edge>
    <edge id=":10041021732_5" function="internal">
        <lane id=":10041021732_5_0" index="0" disallow="tram rail_urban rail rail_electric rail_fast ship" speed="8.08" length="4.03" shape="1590.16,650.55 1593.99,650.95 1594.16,650.90"/>
    </edge>
    <edge id=":10041021732_6" function="internal">
        <lane id=":10041021732_6_0" index="0" disallow="tram rail_urban rail rail_electric rail_fast ship" speed="8.08" length="10.20" shape="1594.16,650.90 1597.07,650.01 1599.39,647.75 1600.96,644.16"/>
    </edge>
    <edge id=":10041021733_0" function="internal">
        <lane id=":10041021733_0_0" index="0" disallow="tram rail_urban rail rail_electric rail_fast ship" speed="22.22" length="14.38" shape="1623.13,585.76 1609.33,581.71"/>
    </edge>
    <edge id=":10041021733_1" function="internal">
        <lane id=":10041021733_1_0" index="0" disallow="tram rail_urban rail rail_electric rail_fast ship" speed="7.98" length="4.06" shape="1623.13,585.76 1619.26,585.21 1619.11,585.25"/>
    </edge>
    <edge id=":10041021733_6" function="internal">
        <lane id=":10041021733_6_0" index="0" disallow="tram rail_urban rail rail_electric rail_fast ship" speed="7.98" length="10.18" shape="1619.11,585.25 1616.15,586.03 1613.82,588.23 1612.24,591.81"/>
    </edge>
    <edge id=":10041021733_2" function="internal">
        <lane id=":10041021733_2_0" index="0" disallow="tram rail_urban rail rail_electric rail_fast ship" speed="6.48" length="9.03" shape="1615.33,592.67 1616.32,590.40 1617.81,589.01 1619.78,588.48 1622.23,588.83"/>
    </edge>
    <edge id=":10041021733_3" function="internal">
        <lane id=":10041021733_3_0" index="0" disallow="tram rail_urban rail rail_electric rail_fast ship" speed="8.05" length="14.20" shape="1615.33,592.67 1615.84,588.80 1615.01,585.69 1612.84,583.32 1609.33,581.71"/>
    </edge>
    <edge id=":10041021733_4" function="internal">
        <lane id=":10041021733_4_0" index="0" disallow="tram rail_urban rail rail_electric rail_fast ship" speed="6.57" length="9.10" shape="1608.42,584.77 1610.66,585.81 1612.05,587.32 1612.58,589.33 1612.24,591.81"/>
    </edge>
    <edge id=":10041021733_5" function="internal">
        <lane id=":10041021733_5_0" index="0" disallow="tram rail_urban rail rail_electric rail_fast ship" speed="22.22" length="14.39" shape="1608.42,584.77 1622.23,588.83"/>
    </edge>
    <edge id=":10075309954_0" function="internal">
        <lane id=":10075309954_0_0" index="0" disallow="tram rail_urban rail rail_electric rail_fast ship" speed="8.61" length="11.58" shape="2027.51,-24.47 2023.54,-25.66 2020.63,-27.00 2018.78,-28.51 2017.98,-30.18"/>
    </edge>
    <edge id=":10075309954_1" function="internal">
        <lane id=":10075309954_1_0" index="0" disallow="tram rail_urban rail rail_electric rail_fast ship" speed="8.01" length="3.71" shape="2027.51,-24.47 2023.81,-24.84"/>
    </edge>
    <edge id=":10075309954_6" function="internal">
        <lane id=":10075309954_6_0" index="0" disallow="tram rail_urban rail rail_electric rail_fast ship" speed="8.01" length="10.26" shape="2023.81,-24.84 2023.71,-24.85 2020.67,-23.93 2018.41,-21.72 2016.91,-18.20"/>
    </edge>
    <edge id=":10075309954_2" function="internal">
        <lane id=":10075309954_2_0" index="0" disallow="tram rail_urban rail rail_electric rail_fast ship" speed="6.51" length="8.90" shape="2020.00,-17.38 2020.95,-19.61 2022.40,-21.02 2024.33,-21.60 2026.74,-21.36"/>
    </edge>
    <edge id=":10075309954_3" function="internal">
        <lane id=":10075309954_3_0" index="0" disallow="tram rail_urban rail rail_electric rail_fast ship" speed="13.89" length="13.12" shape="2020.00,-17.38 2020.34,-20.72 2019.76,-23.73 2018.80,-26.77 2017.98,-30.18"/>
    </edge>
    <edge id=":10075309954_4" function="internal">
        <lane id=":10075309954_4_0" index="0" disallow="tram rail_urban rail rail_electric rail_fast ship" speed="10.80" length="9.67" shape="2015.40,-27.37 2016.70,-24.83 2017.40,-22.92 2017.48,-20.95 2016.91,-18.20"/>
    </edge>
    <edge id=":10075309954_5" function="internal">
        <lane id=":10075309954_5_0" index="0" disallow="tram rail_urban rail rail_electric rail_fast ship" speed="11.22" length="13.14" shape="2015.40,-27.37 2016.82,-25.62 2019.18,-24.03 2022.49,-22.61 2026.74,-21.36"/>
    </edge>
    <edge id=":10075309966_0" function="internal">
        <lane id=":10075309966_0_0" index="0" disallow="tram rail_urban rail rail_electric rail_fast ship" speed="7.57" length="9.39" shape="2015.95,-14.64 2015.02,-12.43 2013.56,-10.80 2011.58,-9.74 2009.08,-9.25"/>
    </edge>
    <edge id=":10075309966_1" function="internal">
        <lane id=":10075309966_1_0" index="0" disallow="tram rail_urban rail rail_electric rail_fast ship" speed="7.99" length="14.21" shape="2015.95,-14.64 2015.49,-10.78 2016.37,-7.69 2018.61,-5.39 2022.20,-3.88"/>
    </edge>
    <edge id=":10075309966_2" function="internal">
        <lane id=":10075309966_2_0" index="0" disallow="tram rail_urban rail rail_electric rail_fast ship" speed="6.50" length="9.03" shape="2023.02,-6.97 2020.73,-7.94 2019.31,-9.40 2018.75,-11.36 2019.04,-13.82"/>
    </edge>
    <edge id=":10075309966_3" function="internal">
        <lane id=":10075309966_3_0" index="0" disallow="tram rail_urban rail rail_electric rail_fast ship" speed="13.89" length="14.20" shape="2023.02,-6.97 2019.50,-7.92 2016.10,-8.72 2012.68,-9.23 2009.08,-9.25"/>
    </edge>
    <edge id=":10075309966_4" function="internal">
        <lane id=":10075309966_4_0" index="0" disallow="tram rail_urban rail rail_electric rail_fast ship" speed="13.89" length="13.98" shape="2008.60,-5.92 2012.05,-6.43 2015.37,-5.95 2018.71,-4.95 2022.20,-3.88"/>
    </edge>
    <edge id=":10075309966_5" function="internal">
        <lane id=":10075309966_5_0" index="0" disallow="tram rail_urban rail rail_electric rail_fast ship" speed="10.29" length="2.42" shape="2008.60,-5.92 2010.86,-6.80"/>
    </edge>
    <edge id=":10075309966_6" function="internal">
        <lane id=":10075309966_6_0" index="0" disallow="tram rail_urban rail rail_electric rail_fast ship" speed="10.29" length="11.16" shape="2010.86,-6.80 2012.67,-7.51 2015.77,-9.36 2017.89,-11.46 2019.04,-13.82"/>
    </edge>
    <edge id=":10207169666_0" function="internal">
        <lane id=":10207169666_0_0" index="0" disallow="tram rail_urban rail rail_electric rail_fast ship" speed="13.89" length="14.44" shape="1772.94,15.81 1770.48,30.04"/>
    </edge>
    <edge id=":10207169666_1" function="internal">
        <lane id=":10207169666_1_0" index="0" disallow="tram rail_urban rail rail_electric rail_fast ship" speed="8.01" length="4.08" shape="1772.94,15.81 1772.82,19.69 1772.89,19.87"/>
    </edge>
    <edge id=":10207169666_6" function="internal">
        <lane id=":10207169666_6_0" index="0" disallow="tram rail_urban rail rail_electric rail_fast ship" speed="8.01" length="10.13" shape="1772.89,19.87 1773.97,22.69 1776.40,24.80 1780.11,26.01"/>
    </edge>
    <edge id=":10207169666_2" function="internal">
        <lane id=":10207169666_2_0" index="0" disallow="tram rail_urban rail rail_electric rail_fast ship" speed="6.52" length="9.06" shape="1780.67,22.86 1778.30,22.09 1776.75,20.74 1776.02,18.84 1776.09,16.36"/>
    </edge>
    <edge id=":10207169666_3" function="internal">
        <lane id=":10207169666_3_0" index="0" disallow="tram rail_urban rail rail_electric rail_fast ship" speed="7.99" length="14.24" shape="1780.67,22.86 1776.77,22.73 1773.77,23.88 1771.67,26.32 1770.48,30.04"/>
    </edge>
    <edge id=":10207169666_4" function="internal">
        <lane id=":10207169666_4_0" index="0" disallow="tram rail_urban rail rail_electric rail_fast ship" speed="6.49" length="9.04" shape="1773.63,30.57 1774.39,28.21 1775.73,26.66 1777.63,25.93 1780.11,26.01"/>
    </edge>
    <edge id=":10207169666_5" function="internal">
        <lane id=":10207169666_5_0" index="0" disallow="tram rail_urban rail rail_electric rail_fast ship" speed="13.89" length="14.41" shape="1773.63,30.57 1776.09,16.36"/>
    </edge>
    <edge id=":10255764897_0" function="internal">
        <lane id=":10255764897_0_0" index="0" allow="delivery" speed="4.98" length="5.07" shape="1172.82,2.57 1172.57,3.95 1171.94,4.89 1170.93,5.40 1169.53,5.47"/>
    </edge>
    <edge id=":10255764897_1" function="internal">
        <lane id=":10255764897_1_0" index="0" allow="delivery" speed="5.26" length="5.26" shape="1178.88,6.38 1177.59,6.03 1176.68,5.30 1176.15,4.18 1176.02,2.68"/>
    </edge>
    <edge id=":10255764897_2" function="internal">
        <lane id=":10255764897_2_0" index="0" disallow="pedestrian bicycle tram rail_urban rail rail_electric rail_fast ship" speed="11.11" length="9.37" shape="1178.88,6.38 1169.53,5.47"/>
        <lane id=":10255764897_2_1" index="1" disallow="pedestrian bicycle tram rail_urban rail rail_electric rail_fast ship" speed="11.11" length="9.37" shape="1178.56,9.56 1169.23,8.66"/>
        <lane id=":10255764897_2_2" index="2" disallow="pedestrian bicycle tram rail_urban rail rail_electric rail_fast ship" speed="11.11" length="9.37" shape="1178.24,12.75 1168.93,11.84"/>
    </edge>
    <edge id=":10256787374_0" function="internal">
        <lane id=":10256787374_0_0" index="0" allow="delivery" speed="5.08" length="5.02" shape="1617.03,71.29 1618.35,71.62 1619.26,72.31 1619.75,73.34 1619.82,74.72"/>
    </edge>
    <edge id=":10256787374_1" function="internal">
        <lane id=":10256787374_1_0" index="0" disallow="pedestrian bicycle tram rail_urban rail rail_electric rail_fast ship" speed="11.11" length="6.20" shape="1617.03,71.29 1623.20,71.93"/>
        <lane id=":10256787374_1_1" index="1" disallow="pedestrian bicycle tram rail_urban rail rail_electric rail_fast ship" speed="11.11" length="6.20" shape="1617.36,68.11 1623.53,68.75"/>
        <lane id=":10256787374_1_2" index="2" disallow="pedestrian bicycle tram rail_urban rail rail_electric rail_fast ship" speed="11.11" length="6.20" shape="1617.70,64.92 1623.86,65.57"/>
    </edge>
    <edge id=":10256787375_0" function="internal">
        <lane id=":10256787375_0_0" index="0" allow="pedestrian delivery bicycle" speed="5.11" length="5.04" shape="1609.57,172.26 1609.24,173.61 1608.56,174.55 1607.55,175.07 1606.20,175.16"/>
    </edge>
    <edge id=":10256787375_1" function="internal">
        <lane id=":10256787375_1_0" index="0" disallow="tram rail_urban rail rail_electric rail_fast ship" speed="13.89" length="6.20" shape="1612.38,175.62 1606.20,175.16"/>
    </edge>
    <edge id=":10256902139_0" function="internal">
        <lane id=":10256902139_0_0" index="0" allow="pedestrian delivery bicycle" speed="5.02" length="5.02" shape="1770.88,283.14 1769.90,284.11 1768.85,284.54 1767.73,284.40 1766.53,283.72"/>
    </edge>
    <edge id=":10256902139_1" function="internal">
        <lane id=":10256902139_1_0" index="0" disallow="tram rail_urban rail rail_electric rail_fast ship" speed="22.22" length="9.45" shape="1770.88,283.14 1765.09,290.60"/>
    </edge>
    <edge id=":10256902139_2" function="internal">
        <lane id=":10256902139_2_0" index="0" disallow="tram rail_urban rail rail_electric rail_fast ship" speed="22.22" length="9.54" shape="1767.58,292.60 1773.44,285.07"/>
    </edge>
    <edge id=":10256902139_3" function="internal">
        <lane id=":10256902139_3_0" index="0" allow="pedestrian delivery bicycle" speed="6.85" length="3.36" shape="1767.58,292.60 1769.01,290.18 1769.08,289.63"/>
    </edge>
    <edge id=":10256902139_6" function="internal">
        <lane id=":10256902139_6_0" index="0" allow="pedestrian delivery bicycle" speed="6.85" length="6.87" shape="1769.08,289.63 1769.31,287.90 1768.48,285.74 1766.53,283.72"/>
    </edge>
    <edge id=":10256902139_4" function="internal">
        <lane id=":10256902139_4_0" index="0" allow="pedestrian delivery bicycle" speed="5.03" length="5.02" shape="1764.57,286.25 1765.53,287.24 1765.93,288.30 1765.79,289.42 1765.09,290.60"/>
    </edge>
    <edge id=":10256902139_5" function="internal">
        <lane id=":10256902139_5_0" index="0" allow="pedestrian delivery bicycle" speed="6.85" length="10.24" shape="1764.57,286.25 1767.01,287.64 1769.30,287.91 1771.44,287.05 1773.44,285.07"/>
    </edge>
    <edge id=":10284118836_0" function="internal">
        <lane id=":10284118836_0_0" index="0" allow="pedestrian delivery bicycle" speed="5.13" length="4.95" shape="2017.44,271.46 2016.64,272.55 2015.68,273.16 2014.56,273.28 2013.28,272.91"/>
    </edge>
    <edge id=":10284118836_1" function="internal">
        <lane id=":10284118836_1_0" index="0" allow="pedestrian delivery bicycle" speed="6.91" length="9.90" shape="2017.44,271.46 2016.51,273.99 2016.59,276.24 2017.67,278.22 2019.75,279.93"/>
    </edge>
    <edge id=":10284118836_2" function="internal">
        <lane id=":10284118836_2_0" index="0" allow="pedestrian delivery bicycle" speed="5.10" length="4.94" shape="2021.41,277.20 2020.38,276.34 2019.84,275.36 2019.80,274.23 2020.26,272.97"/>
    </edge>
    <edge id=":10284118836_3" function="internal">
        <lane id=":10284118836_3_0" index="0" disallow="tram rail_urban rail rail_electric rail_fast ship" speed="22.22" length="9.21" shape="2021.41,277.20 2019.07,275.78 2017.44,274.86 2015.76,274.04 2013.28,272.91"/>
    </edge>
    <edge id=":10284118836_4" function="internal">
        <lane id=":10284118836_4_0" index="0" disallow="tram rail_urban rail rail_electric rail_fast ship" speed="22.22" length="8.82" shape="2011.96,275.82 2014.34,276.91 2015.95,277.70 2017.51,278.58 2019.75,279.93"/>
    </edge>
    <edge id=":10284118836_5" function="internal">
        <lane id=":10284118836_5_0" index="0" allow="pedestrian delivery bicycle" speed="6.94" length="3.18" shape="2011.96,275.82 2014.52,276.57 2015.03,276.52"/>
    </edge>
    <edge id=":10284118836_6" function="internal">
        <lane id=":10284118836_6_0" index="0" allow="pedestrian delivery bicycle" speed="6.94" length="6.69" shape="2015.03,276.52 2016.76,276.34 2018.68,275.14 2020.26,272.97"/>
    </edge>
    <edge id=":10284118838_0" function="internal">
        <lane id=":10284118838_0_0" index="0" disallow="tram rail_urban rail rail_electric rail_fast ship" speed="13.89" length="14.45" shape="2018.50,191.72 2004.94,186.72"/>
    </edge>
    <edge id=":10284118838_1" function="internal">
        <lane id=":10284118838_1_0" index="0" disallow="tram rail_urban rail rail_electric rail_fast ship" speed="8.25" length="3.98" shape="2018.50,191.72 2014.80,190.93 2014.61,190.97"/>
    </edge>
    <edge id=":10284118838_6" function="internal">
        <lane id=":10284118838_6_0" index="0" disallow="tram rail_urban rail rail_electric rail_fast ship" speed="8.25" length="10.34" shape="2014.61,190.97 2011.62,191.54 2008.97,193.53 2006.85,196.90"/>
    </edge>
    <edge id=":10284118838_2" function="internal">
        <lane id=":10284118838_2_0" index="0" disallow="tram rail_urban rail rail_electric rail_fast ship" speed="6.80" length="9.42" shape="2009.76,198.23 2011.17,195.97 2012.91,194.64 2014.98,194.22 2017.38,194.72"/>
    </edge>
    <edge id=":10284118838_3" function="internal">
        <lane id=":10284118838_3_0" index="0" disallow="tram rail_urban rail rail_electric rail_fast ship" speed="7.87" length="14.50" shape="2009.76,198.23 2010.89,194.38 2010.46,191.17 2008.48,188.62 2004.94,186.72"/>
    </edge>
    <edge id=":10284118838_4" function="internal">
        <lane id=":10284118838_4_0" index="0" disallow="tram rail_urban rail rail_electric rail_fast ship" speed="6.34" length="9.04" shape="2003.84,189.73 2006.05,190.91 2007.29,192.50 2007.55,194.50 2006.85,196.90"/>
    </edge>
    <edge id=":10284118838_5" function="internal">
        <lane id=":10284118838_5_0" index="0" disallow="tram rail_urban rail rail_electric rail_fast ship" speed="13.89" length="14.43" shape="2003.84,189.73 2017.38,194.72"/>
    </edge>
    <edge id=":10284118847_0" function="internal">
        <lane id=":10284118847_0_0" index="0" disallow="tram rail_urban rail rail_electric rail_fast ship" speed="6.29" length="9.04" shape="2035.42,191.90 2034.46,194.22 2033.00,195.59 2031.03,196.01 2028.58,195.48"/>
    </edge>
    <edge id=":10284118847_1" function="internal">
        <lane id=":10284118847_1_0" index="0" disallow="tram rail_urban rail rail_electric rail_fast ship" speed="8.37" length="14.37" shape="2035.42,191.90 2034.94,195.89 2035.70,199.16 2037.72,201.71 2040.98,203.52"/>
    </edge>
    <edge id=":10284118847_2" function="internal">
        <lane id=":10284118847_2_0" index="0" disallow="tram rail_urban rail rail_electric rail_fast ship" speed="6.95" length="9.60" shape="2042.10,200.52 2039.97,199.32 2038.66,197.62 2038.18,195.41 2038.52,192.69"/>
    </edge>
    <edge id=":10284118847_3" function="internal">
        <lane id=":10284118847_3_0" index="0" disallow="tram rail_urban rail rail_electric rail_fast ship" speed="13.89" length="14.44" shape="2042.10,200.52 2028.58,195.48"/>
    </edge>
    <edge id=":10284118847_4" function="internal">
        <lane id=":10284118847_4_0" index="0" disallow="tram rail_urban rail rail_electric rail_fast ship" speed="13.89" length="14.44" shape="2027.46,198.48 2040.98,203.52"/>
    </edge>
    <edge id=":10284118847_5" function="internal">
        <lane id=":10284118847_5_0" index="0" disallow="tram rail_urban rail rail_electric rail_fast ship" speed="7.82" length="4.07" shape="2027.46,198.48 2031.43,199.34"/>
    </edge>
    <edge id=":10284118847_6" function="internal">
        <lane id=":10284118847_6_0" index="0" disallow="tram rail_urban rail rail_electric rail_fast ship" speed="7.82" length="10.55" shape="2031.43,199.34 2034.60,198.66 2036.96,196.45 2038.52,192.69"/>
    </edge>
    <edge id=":10284118849_0" function="internal">
        <lane id=":10284118849_0_0" index="0" disallow="tram rail_urban rail rail_electric rail_fast ship" speed="6.85" length="9.86" shape="2088.77,176.10 2087.80,178.29 2086.17,179.65 2083.88,180.20 2080.91,179.92"/>
    </edge>
    <edge id=":10284118849_1" function="internal">
        <lane id=":10284118849_1_0" index="0" disallow="tram rail_urban rail rail_electric rail_fast ship" speed="13.89" length="14.47" shape="2088.77,176.10 2087.76,179.62 2086.57,182.98 2085.29,186.31 2083.99,189.74"/>
    </edge>
    <edge id=":10284118849_2" function="internal">
        <lane id=":10284118849_2_0" index="0" disallow="tram rail_urban rail rail_electric rail_fast ship" speed="13.89" length="14.47" shape="2086.99,190.84 2088.30,187.41 2089.59,184.08 2090.79,180.72 2091.80,177.20"/>
    </edge>
    <edge id=":10284118849_3" function="internal">
        <lane id=":10284118849_3_0" index="0" disallow="tram rail_urban rail rail_electric rail_fast ship" speed="7.77" length="4.13" shape="2086.99,190.84 2087.84,186.79"/>
    </edge>
    <edge id=":10284118849_6" function="internal">
        <lane id=":10284118849_6_0" index="0" disallow="tram rail_urban rail rail_electric rail_fast ship" speed="7.77" length="10.63" shape="2087.84,186.79 2087.10,183.63 2084.80,181.34 2080.91,179.92"/>
    </edge>
    <edge id=":10284118849_4" function="internal">
        <lane id=":10284118849_4_0" index="0" disallow="tram rail_urban rail rail_electric rail_fast ship" speed="6.22" length="9.05" shape="2080.26,183.06 2082.64,183.92 2084.05,185.33 2084.50,187.27 2083.99,189.74"/>
    </edge>
    <edge id=":10284118849_5" function="internal">
        <lane id=":10284118849_5_0" index="0" disallow="tram rail_urban rail rail_electric rail_fast ship" speed="8.21" length="14.61" shape="2080.26,183.06 2084.59,183.44 2087.95,182.60 2090.36,180.51 2091.80,177.20"/>
    </edge>
    <edge id=":10284118851_0" function="internal">
        <lane id=":10284118851_0_0" index="0" disallow="tram rail_urban rail rail_electric rail_fast ship" speed="6.97" length="9.59" shape="2017.22,315.25 2015.61,317.08 2013.67,318.02 2011.41,318.05 2008.82,317.17"/>
    </edge>
    <edge id=":10284118851_1" function="internal">
        <lane id=":10284118851_1_0" index="0" disallow="tram rail_urban rail rail_electric rail_fast ship" speed="13.89" length="14.41" shape="2017.22,315.25 2009.61,327.48"/>
    </edge>
    <edge id=":10284118851_2" function="internal">
        <lane id=":10284118851_2_0" index="0" disallow="tram rail_urban rail rail_electric rail_fast ship" speed="13.89" length="14.35" shape="2012.34,329.15 2019.92,316.96"/>
    </edge>
    <edge id=":10284118851_3" function="internal">
        <lane id=":10284118851_3_0" index="0" disallow="tram rail_urban rail rail_electric rail_fast ship" speed="7.84" length="4.05" shape="2012.34,329.15 2013.94,325.43"/>
    </edge>
    <edge id=":10284118851_6" function="internal">
        <lane id=":10284118851_6_0" index="0" disallow="tram rail_urban rail rail_electric rail_fast ship" speed="7.84" length="10.53" shape="2013.94,325.43 2013.88,322.19 2012.18,319.44 2008.82,317.17"/>
    </edge>
    <edge id=":10284118851_4" function="internal">
        <lane id=":10284118851_4_0" index="0" disallow="tram rail_urban rail rail_electric rail_fast ship" speed="6.31" length="9.04" shape="2007.43,320.05 2009.51,321.46 2010.57,323.16 2010.60,325.17 2009.61,327.48"/>
    </edge>
    <edge id=":10284118851_5" function="internal">
        <lane id=":10284118851_5_0" index="0" disallow="tram rail_urban rail rail_electric rail_fast ship" speed="8.39" length="14.33" shape="2007.43,320.05 2011.23,321.32 2014.58,321.23 2017.48,319.78 2019.92,316.96"/>
    </edge>
    <edge id=":10284118852_0" function="internal">
        <lane id=":10284118852_0_0" index="0" disallow="tram rail_urban rail rail_electric rail_fast ship" speed="6.80" length="9.42" shape="1965.25,324.93 1963.74,327.12 1961.95,328.38 1959.86,328.71 1957.48,328.10"/>
    </edge>
    <edge id=":10284118852_1" function="internal">
        <lane id=":10284118852_1_0" index="0" disallow="tram rail_urban rail rail_electric rail_fast ship" speed="7.87" length="14.50" shape="1965.25,324.93 1963.95,328.73 1964.23,331.95 1966.10,334.59 1969.56,336.64"/>
    </edge>
    <edge id=":10284118852_2" function="internal">
        <lane id=":10284118852_2_0" index="0" disallow="tram rail_urban rail rail_electric rail_fast ship" speed="6.34" length="9.04" shape="1970.78,333.69 1968.63,332.40 1967.47,330.76 1967.29,328.75 1968.10,326.38"/>
    </edge>
    <edge id=":10284118852_3" function="internal">
        <lane id=":10284118852_3_0" index="0" disallow="tram rail_urban rail rail_electric rail_fast ship" speed="13.89" length="14.43" shape="1970.78,333.69 1957.48,328.10"/>
    </edge>
    <edge id=":10284118852_4" function="internal">
        <lane id=":10284118852_4_0" index="0" disallow="tram rail_urban rail rail_electric rail_fast ship" speed="13.89" length="14.45" shape="1956.23,331.05 1969.56,336.64"/>
    </edge>
    <edge id=":10284118852_5" function="internal">
        <lane id=":10284118852_5_0" index="0" disallow="tram rail_urban rail rail_electric rail_fast ship" speed="8.25" length="3.98" shape="1956.23,331.05 1959.90,332.00 1960.08,331.97"/>
    </edge>
    <edge id=":10284118852_6" function="internal">
        <lane id=":10284118852_6_0" index="0" disallow="tram rail_urban rail rail_electric rail_fast ship" speed="8.25" length="10.34" shape="1960.08,331.97 1963.10,331.54 1965.83,329.66 1968.10,326.38"/>
    </edge>
    <edge id=":10284118857_0" function="internal">
        <lane id=":10284118857_0_0" index="0" disallow="tram rail_urban rail rail_electric rail_fast ship" speed="13.89" length="9.47" shape="2058.60,206.58 2049.71,203.32"/>
    </edge>
    <edge id=":10284118857_1" function="internal">
        <lane id=":10284118857_1_0" index="0" allow="pedestrian delivery bicycle" speed="7.26" length="3.01" shape="2058.60,206.58 2056.07,206.09 2055.64,206.18"/>
    </edge>
    <edge id=":10284118857_6" function="internal">
        <lane id=":10284118857_6_0" index="0" allow="pedestrian delivery bicycle" speed="7.26" length="7.24" shape="2055.64,206.18 2053.83,206.57 2051.86,208.01 2050.17,210.43"/>
    </edge>
    <edge id=":10284118857_2" function="internal">
        <lane id=":10284118857_2_0" index="0" allow="pedestrian delivery bicycle" speed="5.55" length="5.61" shape="2052.99,211.94 2053.94,210.54 2055.01,209.68 2056.20,209.36 2057.50,209.58"/>
    </edge>
    <edge id=":10284118857_3" function="internal">
        <lane id=":10284118857_3_0" index="0" allow="pedestrian delivery bicycle" speed="6.76" length="10.89" shape="2052.99,211.94 2054.03,209.08 2053.83,206.69 2052.39,204.77 2049.71,203.32"/>
    </edge>
    <edge id=":10284118857_4" function="internal">
        <lane id=":10284118857_4_0" index="0" allow="pedestrian delivery bicycle" speed="4.90" length="5.18" shape="2048.61,206.33 2049.88,207.02 2050.57,207.93 2050.66,209.06 2050.17,210.43"/>
    </edge>
    <edge id=":10284118857_5" function="internal">
        <lane id=":10284118857_5_0" index="0" disallow="tram rail_urban rail rail_electric rail_fast ship" speed="13.89" length="9.46" shape="2048.61,206.33 2057.50,209.58"/>
    </edge>
    <edge id=":10566973435_0" function="internal">
        <lane id=":10566973435_0_0" index="0" allow="pedestrian delivery bicycle" speed="5.46" length="5.51" shape="1703.56,332.75 1702.27,332.43 1701.33,331.67 1700.73,330.48 1700.47,328.86"/>
    </edge>
    <edge id=":10566973435_1" function="internal">
        <lane id=":10566973435_1_0" index="0" disallow="tram rail_urban rail rail_electric rail_fast ship" speed="22.22" length="9.45" shape="1703.56,332.75 1694.14,332.06"/>
    </edge>
    <edge id=":10566973435_2" function="internal">
        <lane id=":10566973435_2_0" index="0" disallow="tram rail_urban rail rail_electric rail_fast ship" speed="22.22" length="9.45" shape="1693.90,335.26 1703.33,335.94"/>
    </edge>
    <edge id=":10566973435_3" function="internal">
        <lane id=":10566973435_3_0" index="0" allow="pedestrian delivery bicycle" speed="6.77" length="3.38" shape="1693.90,335.26 1696.90,335.04 1697.23,334.86"/>
    </edge>
    <edge id=":10566973435_6" function="internal">